<?xml version="1.0" encoding="UTF-8" standalone="yes"?>
<template encoding-version="1.2">
    <description></description>
    <groupId>95d32ba8-016d-1000-0000-00003fa40e27</groupId>
    <name>opcua_20191025</name>
    <snippet>
        <connections>
            <id>08ebe778-9817-3e4e-0000-000000000000</id>
            <parentGroupId>ad7b96ea-2880-3aaa-0000-000000000000</parentGroupId>
            <backPressureDataSizeThreshold>1 GB</backPressureDataSizeThreshold>
            <backPressureObjectThreshold>10000</backPressureObjectThreshold>
            <destination>
                <groupId>ad7b96ea-2880-3aaa-0000-000000000000</groupId>
                <id>3988f7c6-e4f8-34c6-0000-000000000000</id>
                <type>PROCESSOR</type>
            </destination>
            <flowFileExpiration>0 sec</flowFileExpiration>
            <labelIndex>1</labelIndex>
            <loadBalanceCompression>DO_NOT_COMPRESS</loadBalanceCompression>
            <loadBalancePartitionAttribute></loadBalancePartitionAttribute>
            <loadBalanceStatus>LOAD_BALANCE_NOT_CONFIGURED</loadBalanceStatus>
            <loadBalanceStrategy>DO_NOT_LOAD_BALANCE</loadBalanceStrategy>
            <name></name>
            <prioritizers>org.apache.nifi.prioritizer.FirstInFirstOutPrioritizer</prioritizers>
            <selectedRelationships>matched</selectedRelationships>
            <source>
                <groupId>ad7b96ea-2880-3aaa-0000-000000000000</groupId>
                <id>b6bea5e5-99c9-3875-0000-000000000000</id>
                <type>PROCESSOR</type>
            </source>
            <zIndex>0</zIndex>
        </connections>
        <connections>
            <id>0a42fd22-905a-30c1-0000-000000000000</id>
            <parentGroupId>ad7b96ea-2880-3aaa-0000-000000000000</parentGroupId>
            <backPressureDataSizeThreshold>1 GB</backPressureDataSizeThreshold>
            <backPressureObjectThreshold>10000</backPressureObjectThreshold>
            <destination>
                <groupId>ad7b96ea-2880-3aaa-0000-000000000000</groupId>
                <id>a669e2c0-9744-3470-0000-000000000000</id>
                <type>PROCESSOR</type>
            </destination>
            <flowFileExpiration>0 sec</flowFileExpiration>
            <labelIndex>1</labelIndex>
            <loadBalanceCompression>DO_NOT_COMPRESS</loadBalanceCompression>
            <loadBalancePartitionAttribute></loadBalancePartitionAttribute>
            <loadBalanceStatus>LOAD_BALANCE_NOT_CONFIGURED</loadBalanceStatus>
            <loadBalanceStrategy>DO_NOT_LOAD_BALANCE</loadBalanceStrategy>
            <name></name>
            <prioritizers>org.apache.nifi.prioritizer.FirstInFirstOutPrioritizer</prioritizers>
            <selectedRelationships>success</selectedRelationships>
            <source>
                <groupId>ad7b96ea-2880-3aaa-0000-000000000000</groupId>
                <id>cf09ecde-94bd-3d2b-0000-000000000000</id>
                <type>PROCESSOR</type>
            </source>
            <zIndex>0</zIndex>
        </connections>
        <connections>
            <id>0b321523-e10a-3caf-0000-000000000000</id>
            <parentGroupId>ad7b96ea-2880-3aaa-0000-000000000000</parentGroupId>
            <backPressureDataSizeThreshold>1 GB</backPressureDataSizeThreshold>
            <backPressureObjectThreshold>10000</backPressureObjectThreshold>
            <destination>
                <groupId>ad7b96ea-2880-3aaa-0000-000000000000</groupId>
                <id>b6bea5e5-99c9-3875-0000-000000000000</id>
                <type>PROCESSOR</type>
            </destination>
            <flowFileExpiration>0 sec</flowFileExpiration>
            <labelIndex>1</labelIndex>
            <loadBalanceCompression>DO_NOT_COMPRESS</loadBalanceCompression>
            <loadBalancePartitionAttribute></loadBalancePartitionAttribute>
            <loadBalanceStatus>LOAD_BALANCE_NOT_CONFIGURED</loadBalanceStatus>
            <loadBalanceStrategy>DO_NOT_LOAD_BALANCE</loadBalanceStrategy>
            <name></name>
            <prioritizers>org.apache.nifi.prioritizer.FirstInFirstOutPrioritizer</prioritizers>
            <selectedRelationships>success</selectedRelationships>
            <source>
                <groupId>ad7b96ea-2880-3aaa-0000-000000000000</groupId>
                <id>8541790f-f790-348c-0000-000000000000</id>
                <type>PROCESSOR</type>
            </source>
            <zIndex>0</zIndex>
        </connections>
        <connections>
            <id>0c7fb907-11cd-3baf-0000-000000000000</id>
            <parentGroupId>ad7b96ea-2880-3aaa-0000-000000000000</parentGroupId>
            <backPressureDataSizeThreshold>1 GB</backPressureDataSizeThreshold>
            <backPressureObjectThreshold>10000</backPressureObjectThreshold>
            <destination>
                <groupId>ad7b96ea-2880-3aaa-0000-000000000000</groupId>
                <id>b747c0f7-0146-3c51-0000-000000000000</id>
                <type>PROCESSOR</type>
            </destination>
            <flowFileExpiration>0 sec</flowFileExpiration>
            <labelIndex>1</labelIndex>
            <loadBalanceCompression>DO_NOT_COMPRESS</loadBalanceCompression>
            <loadBalancePartitionAttribute></loadBalancePartitionAttribute>
            <loadBalanceStatus>LOAD_BALANCE_NOT_CONFIGURED</loadBalanceStatus>
            <loadBalanceStrategy>DO_NOT_LOAD_BALANCE</loadBalanceStrategy>
            <name></name>
            <prioritizers>org.apache.nifi.prioritizer.FirstInFirstOutPrioritizer</prioritizers>
            <selectedRelationships>matched</selectedRelationships>
            <source>
                <groupId>ad7b96ea-2880-3aaa-0000-000000000000</groupId>
                <id>192036f8-e8c8-34b0-0000-000000000000</id>
                <type>PROCESSOR</type>
            </source>
            <zIndex>0</zIndex>
        </connections>
        <connections>
            <id>14e3c33d-161e-3326-0000-000000000000</id>
            <parentGroupId>ad7b96ea-2880-3aaa-0000-000000000000</parentGroupId>
            <backPressureDataSizeThreshold>1 GB</backPressureDataSizeThreshold>
            <backPressureObjectThreshold>10000</backPressureObjectThreshold>
            <destination>
                <groupId>ad7b96ea-2880-3aaa-0000-000000000000</groupId>
                <id>0e820d87-4ada-3db0-0000-000000000000</id>
                <type>PROCESSOR</type>
            </destination>
            <flowFileExpiration>0 sec</flowFileExpiration>
            <labelIndex>1</labelIndex>
            <loadBalanceCompression>DO_NOT_COMPRESS</loadBalanceCompression>
            <loadBalancePartitionAttribute></loadBalancePartitionAttribute>
            <loadBalanceStatus>LOAD_BALANCE_NOT_CONFIGURED</loadBalanceStatus>
            <loadBalanceStrategy>DO_NOT_LOAD_BALANCE</loadBalanceStrategy>
            <name></name>
            <selectedRelationships>success</selectedRelationships>
            <source>
                <groupId>ad7b96ea-2880-3aaa-0000-000000000000</groupId>
                <id>76bd630d-5ad2-39e2-0000-000000000000</id>
                <type>PROCESSOR</type>
            </source>
            <zIndex>0</zIndex>
        </connections>
        <connections>
            <id>1eeda25f-21bb-32d0-0000-000000000000</id>
            <parentGroupId>ad7b96ea-2880-3aaa-0000-000000000000</parentGroupId>
            <backPressureDataSizeThreshold>1 GB</backPressureDataSizeThreshold>
            <backPressureObjectThreshold>10000</backPressureObjectThreshold>
            <destination>
                <groupId>ad7b96ea-2880-3aaa-0000-000000000000</groupId>
                <id>0bd6bb9a-8af3-351b-0000-000000000000</id>
                <type>PROCESSOR</type>
            </destination>
            <flowFileExpiration>0 sec</flowFileExpiration>
            <labelIndex>1</labelIndex>
            <loadBalanceCompression>DO_NOT_COMPRESS</loadBalanceCompression>
            <loadBalancePartitionAttribute></loadBalancePartitionAttribute>
            <loadBalanceStatus>LOAD_BALANCE_NOT_CONFIGURED</loadBalanceStatus>
            <loadBalanceStrategy>DO_NOT_LOAD_BALANCE</loadBalanceStrategy>
            <name></name>
            <prioritizers>org.apache.nifi.prioritizer.FirstInFirstOutPrioritizer</prioritizers>
            <selectedRelationships>success</selectedRelationships>
            <source>
                <groupId>ad7b96ea-2880-3aaa-0000-000000000000</groupId>
                <id>180a1908-570e-329d-0000-000000000000</id>
                <type>PROCESSOR</type>
            </source>
            <zIndex>0</zIndex>
        </connections>
        <connections>
            <id>27b89a93-18cd-3b2a-0000-000000000000</id>
            <parentGroupId>ad7b96ea-2880-3aaa-0000-000000000000</parentGroupId>
            <backPressureDataSizeThreshold>1 GB</backPressureDataSizeThreshold>
            <backPressureObjectThreshold>10000</backPressureObjectThreshold>
            <destination>
                <groupId>ad7b96ea-2880-3aaa-0000-000000000000</groupId>
                <id>192036f8-e8c8-34b0-0000-000000000000</id>
                <type>PROCESSOR</type>
            </destination>
            <flowFileExpiration>0 sec</flowFileExpiration>
            <labelIndex>1</labelIndex>
            <loadBalanceCompression>DO_NOT_COMPRESS</loadBalanceCompression>
            <loadBalancePartitionAttribute></loadBalancePartitionAttribute>
            <loadBalanceStatus>LOAD_BALANCE_NOT_CONFIGURED</loadBalanceStatus>
            <loadBalanceStrategy>DO_NOT_LOAD_BALANCE</loadBalanceStrategy>
            <name></name>
            <prioritizers>org.apache.nifi.prioritizer.FirstInFirstOutPrioritizer</prioritizers>
            <selectedRelationships>success</selectedRelationships>
            <source>
                <groupId>ad7b96ea-2880-3aaa-0000-000000000000</groupId>
                <id>8541790f-f790-348c-0000-000000000000</id>
                <type>PROCESSOR</type>
            </source>
            <zIndex>0</zIndex>
        </connections>
        <connections>
            <id>2c536569-8040-36e9-0000-000000000000</id>
            <parentGroupId>ad7b96ea-2880-3aaa-0000-000000000000</parentGroupId>
            <backPressureDataSizeThreshold>1 GB</backPressureDataSizeThreshold>
            <backPressureObjectThreshold>10000</backPressureObjectThreshold>
            <destination>
                <groupId>ad7b96ea-2880-3aaa-0000-000000000000</groupId>
                <id>d429a735-97f5-3135-0000-000000000000</id>
                <type>PROCESSOR</type>
            </destination>
            <flowFileExpiration>0 sec</flowFileExpiration>
            <labelIndex>1</labelIndex>
            <loadBalanceCompression>DO_NOT_COMPRESS</loadBalanceCompression>
            <loadBalancePartitionAttribute></loadBalancePartitionAttribute>
            <loadBalanceStatus>LOAD_BALANCE_NOT_CONFIGURED</loadBalanceStatus>
            <loadBalanceStrategy>DO_NOT_LOAD_BALANCE</loadBalanceStrategy>
            <name></name>
            <prioritizers>org.apache.nifi.prioritizer.FirstInFirstOutPrioritizer</prioritizers>
            <selectedRelationships>matched</selectedRelationships>
            <source>
                <groupId>ad7b96ea-2880-3aaa-0000-000000000000</groupId>
                <id>73c53340-0940-3502-0000-000000000000</id>
                <type>PROCESSOR</type>
            </source>
            <zIndex>0</zIndex>
        </connections>
        <connections>
            <id>2fd90946-eefb-3854-0000-000000000000</id>
            <parentGroupId>ad7b96ea-2880-3aaa-0000-000000000000</parentGroupId>
            <backPressureDataSizeThreshold>1 GB</backPressureDataSizeThreshold>
            <backPressureObjectThreshold>10000</backPressureObjectThreshold>
            <destination>
                <groupId>ad7b96ea-2880-3aaa-0000-000000000000</groupId>
                <id>dc562f10-3440-3297-0000-000000000000</id>
                <type>PROCESSOR</type>
            </destination>
            <flowFileExpiration>0 sec</flowFileExpiration>
            <labelIndex>1</labelIndex>
            <loadBalanceCompression>DO_NOT_COMPRESS</loadBalanceCompression>
            <loadBalancePartitionAttribute></loadBalancePartitionAttribute>
            <loadBalanceStatus>LOAD_BALANCE_NOT_CONFIGURED</loadBalanceStatus>
            <loadBalanceStrategy>DO_NOT_LOAD_BALANCE</loadBalanceStrategy>
            <name></name>
            <prioritizers>org.apache.nifi.prioritizer.FirstInFirstOutPrioritizer</prioritizers>
            <selectedRelationships>success</selectedRelationships>
            <source>
                <groupId>ad7b96ea-2880-3aaa-0000-000000000000</groupId>
                <id>2c3fa049-d3d9-382c-0000-000000000000</id>
                <type>PROCESSOR</type>
            </source>
            <zIndex>0</zIndex>
        </connections>
        <connections>
            <id>34a9f20f-aa41-332d-0000-000000000000</id>
            <parentGroupId>ad7b96ea-2880-3aaa-0000-000000000000</parentGroupId>
            <backPressureDataSizeThreshold>1 GB</backPressureDataSizeThreshold>
            <backPressureObjectThreshold>10000</backPressureObjectThreshold>
            <destination>
                <groupId>ad7b96ea-2880-3aaa-0000-000000000000</groupId>
                <id>8541790f-f790-348c-0000-000000000000</id>
                <type>PROCESSOR</type>
            </destination>
            <flowFileExpiration>0 sec</flowFileExpiration>
            <labelIndex>1</labelIndex>
            <loadBalanceCompression>DO_NOT_COMPRESS</loadBalanceCompression>
            <loadBalancePartitionAttribute></loadBalancePartitionAttribute>
            <loadBalanceStatus>LOAD_BALANCE_NOT_CONFIGURED</loadBalanceStatus>
            <loadBalanceStrategy>DO_NOT_LOAD_BALANCE</loadBalanceStrategy>
            <name></name>
            <prioritizers>org.apache.nifi.prioritizer.FirstInFirstOutPrioritizer</prioritizers>
            <selectedRelationships>success</selectedRelationships>
            <source>
                <groupId>ad7b96ea-2880-3aaa-0000-000000000000</groupId>
                <id>dc562f10-3440-3297-0000-000000000000</id>
                <type>PROCESSOR</type>
            </source>
            <zIndex>0</zIndex>
        </connections>
        <connections>
            <id>3909130c-258b-3f16-0000-000000000000</id>
            <parentGroupId>ad7b96ea-2880-3aaa-0000-000000000000</parentGroupId>
            <backPressureDataSizeThreshold>1 GB</backPressureDataSizeThreshold>
            <backPressureObjectThreshold>10000</backPressureObjectThreshold>
            <bends>
                <x>1449.7666621083472</x>
                <y>1859.0006990726547</y>
            </bends>
            <bends>
                <x>1449.7666621083472</x>
                <y>1909.0006990726547</y>
            </bends>
            <destination>
                <groupId>ad7b96ea-2880-3aaa-0000-000000000000</groupId>
                <id>12033c3c-162a-38b8-0000-000000000000</id>
                <type>PROCESSOR</type>
            </destination>
            <flowFileExpiration>0 sec</flowFileExpiration>
            <labelIndex>1</labelIndex>
            <loadBalanceCompression>DO_NOT_COMPRESS</loadBalanceCompression>
            <loadBalancePartitionAttribute></loadBalancePartitionAttribute>
            <loadBalanceStatus>LOAD_BALANCE_NOT_CONFIGURED</loadBalanceStatus>
            <loadBalanceStrategy>DO_NOT_LOAD_BALANCE</loadBalanceStrategy>
            <name></name>
            <prioritizers>org.apache.nifi.prioritizer.FirstInFirstOutPrioritizer</prioritizers>
            <selectedRelationships>wait</selectedRelationships>
            <source>
                <groupId>ad7b96ea-2880-3aaa-0000-000000000000</groupId>
                <id>12033c3c-162a-38b8-0000-000000000000</id>
                <type>PROCESSOR</type>
            </source>
            <zIndex>0</zIndex>
        </connections>
        <connections>
            <id>3b7b4b0a-a2a6-3264-0000-000000000000</id>
            <parentGroupId>ad7b96ea-2880-3aaa-0000-000000000000</parentGroupId>
            <backPressureDataSizeThreshold>1 GB</backPressureDataSizeThreshold>
            <backPressureObjectThreshold>10000</backPressureObjectThreshold>
            <destination>
                <groupId>ad7b96ea-2880-3aaa-0000-000000000000</groupId>
                <id>e2b147c5-664a-37d0-0000-000000000000</id>
                <type>PROCESSOR</type>
            </destination>
            <flowFileExpiration>0 sec</flowFileExpiration>
            <labelIndex>1</labelIndex>
            <loadBalanceCompression>DO_NOT_COMPRESS</loadBalanceCompression>
            <loadBalancePartitionAttribute></loadBalancePartitionAttribute>
            <loadBalanceStatus>LOAD_BALANCE_NOT_CONFIGURED</loadBalanceStatus>
            <loadBalanceStrategy>DO_NOT_LOAD_BALANCE</loadBalanceStrategy>
            <name></name>
            <prioritizers>org.apache.nifi.prioritizer.FirstInFirstOutPrioritizer</prioritizers>
            <selectedRelationships>matched</selectedRelationships>
            <source>
                <groupId>ad7b96ea-2880-3aaa-0000-000000000000</groupId>
                <id>dac99028-9c09-3f2f-0000-000000000000</id>
                <type>PROCESSOR</type>
            </source>
            <zIndex>0</zIndex>
        </connections>
        <connections>
            <id>44f9e309-e361-3efa-0000-000000000000</id>
            <parentGroupId>ad7b96ea-2880-3aaa-0000-000000000000</parentGroupId>
            <backPressureDataSizeThreshold>1 GB</backPressureDataSizeThreshold>
            <backPressureObjectThreshold>10000</backPressureObjectThreshold>
            <destination>
                <groupId>ad7b96ea-2880-3aaa-0000-000000000000</groupId>
                <id>dac99028-9c09-3f2f-0000-000000000000</id>
                <type>PROCESSOR</type>
            </destination>
            <flowFileExpiration>0 sec</flowFileExpiration>
            <labelIndex>1</labelIndex>
            <loadBalanceCompression>DO_NOT_COMPRESS</loadBalanceCompression>
            <loadBalancePartitionAttribute></loadBalancePartitionAttribute>
            <loadBalanceStatus>LOAD_BALANCE_NOT_CONFIGURED</loadBalanceStatus>
            <loadBalanceStrategy>DO_NOT_LOAD_BALANCE</loadBalanceStrategy>
            <name></name>
            <prioritizers>org.apache.nifi.prioritizer.FirstInFirstOutPrioritizer</prioritizers>
            <selectedRelationships>split</selectedRelationships>
            <source>
                <groupId>ad7b96ea-2880-3aaa-0000-000000000000</groupId>
                <id>d429a735-97f5-3135-0000-000000000000</id>
                <type>PROCESSOR</type>
            </source>
            <zIndex>0</zIndex>
        </connections>
        <connections>
            <id>47ee3f02-64a6-3a35-0000-000000000000</id>
            <parentGroupId>ad7b96ea-2880-3aaa-0000-000000000000</parentGroupId>
            <backPressureDataSizeThreshold>1 GB</backPressureDataSizeThreshold>
            <backPressureObjectThreshold>10000</backPressureObjectThreshold>
            <destination>
                <groupId>ad7b96ea-2880-3aaa-0000-000000000000</groupId>
                <id>7832d76e-f7eb-3f19-0000-000000000000</id>
                <type>PROCESSOR</type>
            </destination>
            <flowFileExpiration>0 sec</flowFileExpiration>
            <labelIndex>1</labelIndex>
            <loadBalanceCompression>DO_NOT_COMPRESS</loadBalanceCompression>
            <loadBalancePartitionAttribute></loadBalancePartitionAttribute>
            <loadBalanceStatus>LOAD_BALANCE_NOT_CONFIGURED</loadBalanceStatus>
            <loadBalanceStrategy>DO_NOT_LOAD_BALANCE</loadBalanceStrategy>
            <name></name>
            <prioritizers>org.apache.nifi.prioritizer.FirstInFirstOutPrioritizer</prioritizers>
            <selectedRelationships>success</selectedRelationships>
            <source>
                <groupId>ad7b96ea-2880-3aaa-0000-000000000000</groupId>
                <id>8541790f-f790-348c-0000-000000000000</id>
                <type>PROCESSOR</type>
            </source>
            <zIndex>0</zIndex>
        </connections>
        <connections>
            <id>47ff3ed1-a78d-35a1-0000-000000000000</id>
            <parentGroupId>ad7b96ea-2880-3aaa-0000-000000000000</parentGroupId>
            <backPressureDataSizeThreshold>1 GB</backPressureDataSizeThreshold>
            <backPressureObjectThreshold>10000</backPressureObjectThreshold>
            <bends>
                <x>2400.746278758853</x>
                <y>1678.6487163038523</y>
            </bends>
            <bends>
                <x>2400.746278758853</x>
                <y>1728.6487163038523</y>
            </bends>
            <destination>
                <groupId>ad7b96ea-2880-3aaa-0000-000000000000</groupId>
                <id>76bd630d-5ad2-39e2-0000-000000000000</id>
                <type>PROCESSOR</type>
            </destination>
            <flowFileExpiration>0 sec</flowFileExpiration>
            <labelIndex>1</labelIndex>
            <loadBalanceCompression>DO_NOT_COMPRESS</loadBalanceCompression>
            <loadBalancePartitionAttribute></loadBalancePartitionAttribute>
            <loadBalanceStatus>LOAD_BALANCE_NOT_CONFIGURED</loadBalanceStatus>
            <loadBalanceStrategy>DO_NOT_LOAD_BALANCE</loadBalanceStrategy>
            <name></name>
            <selectedRelationships>wait</selectedRelationships>
            <source>
                <groupId>ad7b96ea-2880-3aaa-0000-000000000000</groupId>
                <id>76bd630d-5ad2-39e2-0000-000000000000</id>
                <type>PROCESSOR</type>
            </source>
            <zIndex>0</zIndex>
        </connections>
        <connections>
            <id>49d28161-672d-3333-0000-000000000000</id>
            <parentGroupId>ad7b96ea-2880-3aaa-0000-000000000000</parentGroupId>
            <backPressureDataSizeThreshold>1 GB</backPressureDataSizeThreshold>
            <backPressureObjectThreshold>10000</backPressureObjectThreshold>
            <destination>
                <groupId>ad7b96ea-2880-3aaa-0000-000000000000</groupId>
                <id>180a1908-570e-329d-0000-000000000000</id>
                <type>PROCESSOR</type>
            </destination>
            <flowFileExpiration>0 sec</flowFileExpiration>
            <labelIndex>1</labelIndex>
            <loadBalanceCompression>DO_NOT_COMPRESS</loadBalanceCompression>
            <loadBalancePartitionAttribute></loadBalancePartitionAttribute>
            <loadBalanceStatus>LOAD_BALANCE_NOT_CONFIGURED</loadBalanceStatus>
            <loadBalanceStrategy>DO_NOT_LOAD_BALANCE</loadBalanceStrategy>
            <name></name>
            <selectedRelationships>matched</selectedRelationships>
            <source>
                <groupId>ad7b96ea-2880-3aaa-0000-000000000000</groupId>
                <id>fe80d09f-5327-37ee-0000-000000000000</id>
                <type>PROCESSOR</type>
            </source>
            <zIndex>0</zIndex>
        </connections>
        <connections>
            <id>4d688430-726d-3b74-0000-000000000000</id>
            <parentGroupId>ad7b96ea-2880-3aaa-0000-000000000000</parentGroupId>
            <backPressureDataSizeThreshold>1 GB</backPressureDataSizeThreshold>
            <backPressureObjectThreshold>10000</backPressureObjectThreshold>
            <destination>
                <groupId>ad7b96ea-2880-3aaa-0000-000000000000</groupId>
                <id>12033c3c-162a-38b8-0000-000000000000</id>
                <type>PROCESSOR</type>
            </destination>
            <flowFileExpiration>0 sec</flowFileExpiration>
            <labelIndex>1</labelIndex>
            <loadBalanceCompression>DO_NOT_COMPRESS</loadBalanceCompression>
            <loadBalancePartitionAttribute></loadBalancePartitionAttribute>
            <loadBalanceStatus>LOAD_BALANCE_NOT_CONFIGURED</loadBalanceStatus>
            <loadBalanceStrategy>DO_NOT_LOAD_BALANCE</loadBalanceStrategy>
            <name></name>
            <prioritizers>org.apache.nifi.prioritizer.FirstInFirstOutPrioritizer</prioritizers>
            <selectedRelationships>success</selectedRelationships>
            <source>
                <groupId>ad7b96ea-2880-3aaa-0000-000000000000</groupId>
                <id>0e4e7872-614c-3078-0000-000000000000</id>
                <type>PROCESSOR</type>
            </source>
            <zIndex>0</zIndex>
        </connections>
        <connections>
            <id>5cee1ad7-37e4-3449-0000-000000000000</id>
            <parentGroupId>ad7b96ea-2880-3aaa-0000-000000000000</parentGroupId>
            <backPressureDataSizeThreshold>1 GB</backPressureDataSizeThreshold>
            <backPressureObjectThreshold>10000</backPressureObjectThreshold>
            <bends>
                <x>1443.413066777641</x>
                <y>1666.8040620870029</y>
            </bends>
            <bends>
                <x>1443.413066777641</x>
                <y>1716.8040620870029</y>
            </bends>
            <destination>
                <groupId>ad7b96ea-2880-3aaa-0000-000000000000</groupId>
                <id>0e4e7872-614c-3078-0000-000000000000</id>
                <type>PROCESSOR</type>
            </destination>
            <flowFileExpiration>0 sec</flowFileExpiration>
            <labelIndex>1</labelIndex>
            <loadBalanceCompression>DO_NOT_COMPRESS</loadBalanceCompression>
            <loadBalancePartitionAttribute></loadBalancePartitionAttribute>
            <loadBalanceStatus>LOAD_BALANCE_NOT_CONFIGURED</loadBalanceStatus>
            <loadBalanceStrategy>DO_NOT_LOAD_BALANCE</loadBalanceStrategy>
            <name></name>
            <prioritizers>org.apache.nifi.prioritizer.FirstInFirstOutPrioritizer</prioritizers>
            <selectedRelationships>wait</selectedRelationships>
            <source>
                <groupId>ad7b96ea-2880-3aaa-0000-000000000000</groupId>
                <id>0e4e7872-614c-3078-0000-000000000000</id>
                <type>PROCESSOR</type>
            </source>
            <zIndex>0</zIndex>
        </connections>
        <connections>
            <id>5f3072c7-5535-3a33-0000-000000000000</id>
            <parentGroupId>ad7b96ea-2880-3aaa-0000-000000000000</parentGroupId>
            <backPressureDataSizeThreshold>1 GB</backPressureDataSizeThreshold>
            <backPressureObjectThreshold>10000</backPressureObjectThreshold>
            <destination>
                <groupId>ad7b96ea-2880-3aaa-0000-000000000000</groupId>
                <id>cf09ecde-94bd-3d2b-0000-000000000000</id>
                <type>PROCESSOR</type>
            </destination>
            <flowFileExpiration>0 sec</flowFileExpiration>
            <labelIndex>1</labelIndex>
            <loadBalanceCompression>DO_NOT_COMPRESS</loadBalanceCompression>
            <loadBalancePartitionAttribute></loadBalancePartitionAttribute>
            <loadBalanceStatus>LOAD_BALANCE_NOT_CONFIGURED</loadBalanceStatus>
            <loadBalanceStrategy>DO_NOT_LOAD_BALANCE</loadBalanceStrategy>
            <name></name>
            <selectedRelationships>success</selectedRelationships>
            <source>
                <groupId>ad7b96ea-2880-3aaa-0000-000000000000</groupId>
                <id>e2b147c5-664a-37d0-0000-000000000000</id>
                <type>PROCESSOR</type>
            </source>
            <zIndex>0</zIndex>
        </connections>
        <connections>
            <id>614c91e5-b5a5-3344-0000-000000000000</id>
            <parentGroupId>ad7b96ea-2880-3aaa-0000-000000000000</parentGroupId>
            <backPressureDataSizeThreshold>1 GB</backPressureDataSizeThreshold>
            <backPressureObjectThreshold>10000</backPressureObjectThreshold>
            <destination>
                <groupId>ad7b96ea-2880-3aaa-0000-000000000000</groupId>
                <id>a669e2c0-9744-3470-0000-000000000000</id>
                <type>PROCESSOR</type>
            </destination>
            <flowFileExpiration>0 sec</flowFileExpiration>
            <labelIndex>1</labelIndex>
            <loadBalanceCompression>DO_NOT_COMPRESS</loadBalanceCompression>
            <loadBalancePartitionAttribute></loadBalancePartitionAttribute>
            <loadBalanceStatus>LOAD_BALANCE_NOT_CONFIGURED</loadBalanceStatus>
            <loadBalanceStrategy>DO_NOT_LOAD_BALANCE</loadBalanceStrategy>
            <name></name>
            <prioritizers>org.apache.nifi.prioritizer.FirstInFirstOutPrioritizer</prioritizers>
            <selectedRelationships>success</selectedRelationships>
            <source>
                <groupId>ad7b96ea-2880-3aaa-0000-000000000000</groupId>
                <id>873e9c1f-21d2-395a-0000-000000000000</id>
                <type>PROCESSOR</type>
            </source>
            <zIndex>0</zIndex>
        </connections>
        <connections>
            <id>72c01341-16a5-3c47-0000-000000000000</id>
            <parentGroupId>ad7b96ea-2880-3aaa-0000-000000000000</parentGroupId>
            <backPressureDataSizeThreshold>1 GB</backPressureDataSizeThreshold>
            <backPressureObjectThreshold>10000</backPressureObjectThreshold>
            <destination>
                <groupId>ad7b96ea-2880-3aaa-0000-000000000000</groupId>
                <id>a669e2c0-9744-3470-0000-000000000000</id>
                <type>PROCESSOR</type>
            </destination>
            <flowFileExpiration>0 sec</flowFileExpiration>
            <labelIndex>1</labelIndex>
            <loadBalanceCompression>DO_NOT_COMPRESS</loadBalanceCompression>
            <loadBalancePartitionAttribute></loadBalancePartitionAttribute>
            <loadBalanceStatus>LOAD_BALANCE_NOT_CONFIGURED</loadBalanceStatus>
            <loadBalanceStrategy>DO_NOT_LOAD_BALANCE</loadBalanceStrategy>
            <name></name>
            <prioritizers>org.apache.nifi.prioritizer.FirstInFirstOutPrioritizer</prioritizers>
            <selectedRelationships>success</selectedRelationships>
            <source>
                <groupId>ad7b96ea-2880-3aaa-0000-000000000000</groupId>